
Data written using the buffer stream in java

Data written using the buffer stream in java
New line..